Version 4
SHEET 1 880 680
WIRE 96 -64 -16 -64
WIRE 352 -64 176 -64
WIRE 160 -32 16 -32
WIRE 288 -32 240 -32
WIRE 496 16 192 16
WIRE 416 32 112 32
WIRE 112 64 112 32
WIRE 192 64 192 16
WIRE 416 80 416 32
WIRE -16 112 -16 -64
WIRE -16 112 -32 112
WIRE 16 112 16 -32
WIRE 16 112 -16 112
WIRE 48 112 16 112
WIRE 288 112 288 -32
WIRE 288 112 256 112
WIRE 304 112 288 112
WIRE -112 128 -112 112
WIRE 496 192 496 16
WIRE 496 192 448 192
WIRE 48 208 16 208
WIRE 320 208 256 208
WIRE 352 208 320 208
WIRE 496 208 496 192
WIRE 16 240 16 208
WIRE 208 288 208 256
WIRE 448 288 448 192
WIRE 448 288 208 288
WIRE -112 336 -112 208
WIRE 16 336 16 320
WIRE 16 336 -112 336
WIRE 416 336 416 160
WIRE 496 336 496 288
WIRE 16 352 16 336
FLAG 16 352 0
FLAG 416 336 0
FLAG 496 336 0
FLAG 304 112 OUT1
FLAG 320 208 OUT2
SYMBOL 2in1 144 160 R0
SYMATTR InstName X1
SYMBOL voltage 16 224 R0
SYMATTR InstName V1
SYMATTR Value 2.5
SYMBOL voltage -112 112 R0
WINDOW 123 0 0 Left 0
WINDOW 39 0 0 Left 0
SYMATTR InstName V2
SYMATTR Value SINE(2.5 0.1 1k)
SYMBOL res -16 96 R90
WINDOW 0 0 56 VBottom 2
WINDOW 3 32 56 VTop 2
SYMATTR InstName R1
SYMATTR Value 10k
SYMBOL res 192 -80 R90
WINDOW 0 0 56 VBottom 2
WINDOW 3 32 56 VTop 2
SYMATTR InstName R2
SYMATTR Value 100k
SYMBOL res 256 -48 R90
WINDOW 0 0 56 VBottom 2
WINDOW 3 32 56 VTop 2
SYMATTR InstName R3
SYMATTR Value 100k
SYMBOL voltage 416 64 R0
SYMATTR InstName V3
SYMATTR Value 5
SYMBOL voltage 496 192 R0
SYMATTR InstName V4
SYMATTR Value 5
TEXT -146 376 Left 2 !.tran 10m
