Version 4
SHEET 1 880 680
WIRE 240 80 32 80
WIRE 352 112 352 16
WIRE 368 112 352 112
WIRE 32 128 32 80
WIRE 32 128 -32 128
WIRE 64 128 32 128
WIRE 112 128 112 16
WIRE 240 144 240 80
WIRE 368 144 240 144
WIRE 208 160 176 160
WIRE 368 176 240 176
WIRE 544 176 496 176
WIRE 32 192 -32 192
WIRE 64 192 32 192
WIRE 64 208 48 208
WIRE 368 208 352 208
WIRE 512 208 496 208
WIRE 32 240 32 192
WIRE 240 240 240 176
WIRE 240 240 32 240
WIRE 512 240 512 208
WIRE 112 272 112 192
WIRE 112 272 64 272
WIRE 352 272 352 208
WIRE 352 272 336 272
WIRE 48 304 48 208
FLAG 512 240 0
FLAG 544 176 Vout2
IOPIN 544 176 Out
FLAG 336 272 Vbias2
IOPIN 336 272 In
FLAG 352 16 Vdd2
IOPIN 352 16 In
FLAG 112 16 Vdd1
IOPIN 112 16 In
FLAG -32 128 Vin-
IOPIN -32 128 In
FLAG -32 192 Vin+
IOPIN -32 192 In
FLAG 64 272 Vbias1
IOPIN 64 272 In
FLAG 208 160 Vout1
IOPIN 208 160 Out
FLAG 48 304 0
SYMBOL Opamp3ureiauto 144 160 R0
SYMATTR InstName X1
SYMBOL opamp_k_niioka_20200903 432 176 R0
SYMATTR InstName X2
