Version 4
SHEET 1 1384 680
WIRE -864 -64 -944 -64
WIRE -720 -64 -784 -64
WIRE 48 -32 -32 -32
WIRE 192 -32 128 -32
WIRE -496 0 -800 0
WIRE 416 32 112 32
WIRE -496 48 -496 0
WIRE -944 80 -944 -64
WIRE -944 80 -1024 80
WIRE -848 80 -944 80
WIRE -800 80 -800 0
WIRE 416 80 416 32
WIRE -1216 96 -1264 96
WIRE -1168 96 -1216 96
WIRE -1024 96 -1024 80
WIRE -1024 96 -1088 96
WIRE -720 112 -720 -64
WIRE -720 112 -736 112
WIRE -608 112 -720 112
WIRE -32 112 -32 -32
WIRE -32 112 -112 112
WIRE 64 112 -32 112
WIRE 112 112 112 32
WIRE -336 128 -432 128
WIRE -256 128 -336 128
WIRE -112 128 -112 112
WIRE -112 128 -176 128
WIRE -992 144 -1056 144
WIRE -848 144 -992 144
WIRE 192 144 192 -32
WIRE 192 144 176 144
WIRE 304 144 192 144
WIRE -848 160 -864 160
WIRE -432 160 -432 128
WIRE -1264 176 -1344 176
WIRE -1168 176 -1216 176
WIRE -1056 176 -1056 144
WIRE -1056 176 -1088 176
WIRE -80 176 -144 176
WIRE 64 176 -80 176
WIRE 64 192 48 192
WIRE -864 208 -864 160
WIRE -256 208 -288 208
WIRE -144 208 -144 176
WIRE -144 208 -176 208
WIRE -1264 224 -1264 176
WIRE -336 224 -336 128
WIRE -432 240 -432 224
WIRE 48 240 48 192
WIRE -1344 288 -1344 176
WIRE -1216 304 -1216 176
WIRE -1216 304 -1264 304
WIRE -496 304 -496 128
WIRE 416 336 416 160
FLAG 416 336 0
FLAG 304 144 OUT1
FLAG -432 240 0
FLAG -80 256 0
FLAG 48 320 0
FLAG -32 112 A
FLAG -80 176 B
FLAG -288 288 0
FLAG -336 272 0
FLAG -496 304 0
FLAG -608 112 OUT2
FLAG -992 224 0
FLAG -864 288 0
FLAG -944 80 C
FLAG -992 144 D
FLAG -1344 288 0
DATAFLAG 256 32 ""
DATAFLAG -656 0 ""
SYMBOL voltage 416 64 R0
SYMATTR InstName V3
SYMATTR Value 5
SYMBOL Opamp3ureiauto 144 144 R0
SYMATTR InstName X1
SYMBOL res 144 -48 R90
WINDOW 0 0 56 VBottom 2
WINDOW 3 32 56 VTop 2
SYMATTR InstName R1
SYMATTR Value 10k
SYMBOL res -160 112 R90
WINDOW 0 0 56 VBottom 2
WINDOW 3 32 56 VTop 2
SYMATTR InstName R2
SYMATTR Value 1k
SYMBOL res -160 192 R90
WINDOW 0 0 56 VBottom 2
WINDOW 3 32 56 VTop 2
SYMATTR InstName R3
SYMATTR Value 1k
SYMBOL res -96 160 R0
SYMATTR InstName R4
SYMATTR Value 10k
SYMBOL voltage 48 336 R180
WINDOW 0 24 96 Left 2
WINDOW 3 24 16 Left 2
WINDOW 123 0 0 Left 0
WINDOW 39 0 0 Left 0
SYMATTR InstName V2
SYMATTR Value 5
SYMBOL e -288 192 R0
SYMATTR InstName E1
SYMATTR Value 1
SYMBOL voltage -432 256 R180
WINDOW 0 24 96 Left 2
WINDOW 3 24 16 Left 2
SYMATTR InstName V1
SYMBOL voltage -496 32 R0
SYMATTR InstName V4
SYMATTR Value 5
SYMBOL Opamp3ureiauto -768 112 R0
SYMATTR InstName X2
SYMBOL res -768 -80 R90
WINDOW 0 0 56 VBottom 2
WINDOW 3 32 56 VTop 2
SYMATTR InstName R5
SYMATTR Value 10k
SYMBOL res -1072 80 R90
WINDOW 0 0 56 VBottom 2
WINDOW 3 32 56 VTop 2
SYMATTR InstName R6
SYMATTR Value 1k
SYMBOL res -1072 160 R90
WINDOW 0 0 56 VBottom 2
WINDOW 3 32 56 VTop 2
SYMATTR InstName R7
SYMATTR Value 1k
SYMBOL res -1008 128 R0
SYMATTR InstName R8
SYMATTR Value 10k
SYMBOL voltage -864 304 R180
WINDOW 0 24 96 Left 2
WINDOW 3 24 16 Left 2
WINDOW 123 0 0 Left 0
WINDOW 39 0 0 Left 0
SYMATTR InstName V5
SYMATTR Value 5
SYMBOL voltage -1216 192 R180
WINDOW 0 24 96 Left 2
WINDOW 3 24 16 Left 2
SYMATTR InstName V6
SYMBOL res -1248 192 R180
WINDOW 0 36 76 Left 2
WINDOW 3 36 40 Left 2
SYMATTR InstName R9
SYMATTR Value 0.01
SYMBOL res -1280 208 R0
SYMATTR InstName R10
SYMATTR Value 0.01
TEXT 72 344 Left 2 !.include models/OR1_mos
TEXT -456 320 Left 2 ;;tran 0 1 0
TEXT -464 400 Left 2 ;.dc V6 0 10
TEXT -468 364 Left 2 ;.dc V1 0 5
