Version 4
SHEET 1 880 680
WIRE 48 -32 -32 -32
WIRE 192 -32 128 -32
WIRE 416 32 112 32
WIRE 416 80 416 32
WIRE -48 112 -112 112
WIRE -32 112 -32 -32
WIRE -32 112 -48 112
WIRE 64 112 -32 112
WIRE 112 112 112 32
WIRE -256 128 -432 128
WIRE -112 128 -112 112
WIRE -112 128 -176 128
WIRE 192 144 192 -32
WIRE 192 144 176 144
WIRE 304 144 192 144
WIRE -432 160 -432 128
WIRE 64 176 -144 176
WIRE 64 192 48 192
WIRE 48 224 48 192
WIRE -144 256 -144 176
WIRE 416 336 416 160
FLAG 416 336 0
FLAG 304 144 OUT1
FLAG 48 304 0
FLAG -144 256 0
FLAG -432 240 0
FLAG -48 112 Vin
DATAFLAG 256 32 ""
SYMBOL voltage 416 64 R0
SYMATTR InstName V3
SYMATTR Value 2.5
SYMBOL Opamp3ureiauto 144 144 R0
SYMATTR InstName X1
SYMBOL voltage -432 144 R0
WINDOW 3 35 44 Left 2
WINDOW 123 38 67 Left 2
WINDOW 39 0 0 Left 0
SYMATTR Value ""
SYMATTR Value2 AC 1 0
SYMATTR InstName V1
SYMBOL voltage 48 320 R180
WINDOW 0 24 96 Left 2
WINDOW 3 24 16 Left 2
WINDOW 123 0 0 Left 0
WINDOW 39 0 0 Left 0
SYMATTR InstName V2
SYMATTR Value 2.5
SYMBOL res 144 -48 R90
WINDOW 0 0 56 VBottom 2
WINDOW 3 32 56 VTop 2
SYMATTR InstName R1
SYMATTR Value 100k
SYMBOL res -160 112 R90
WINDOW 0 0 56 VBottom 2
WINDOW 3 32 56 VTop 2
SYMATTR InstName R2
SYMATTR Value 1k
TEXT 72 344 Left 2 !.include models/OR1_mos
TEXT -144 376 Left 2 !;tran 0 40u 0
TEXT -240 336 Left 2 !.ac oct 10 1 100Meg
