Version 4
SHEET 1 880 680
WIRE 96 -64 -16 -64
WIRE 352 -64 176 -64
WIRE 496 16 16 16
WIRE 16 80 16 16
WIRE 32 80 16 80
WIRE 48 80 32 80
WIRE -16 112 -16 -64
WIRE -16 112 -32 112
WIRE 48 112 -16 112
WIRE -112 128 -112 112
WIRE 48 144 16 144
WIRE 240 144 176 144
WIRE 352 144 352 -64
WIRE 352 144 240 144
WIRE 32 176 32 80
WIRE 48 176 32 176
WIRE 208 176 176 176
WIRE 496 208 496 16
WIRE 16 240 16 144
WIRE 208 320 208 176
WIRE -112 336 -112 208
WIRE 16 336 16 320
WIRE 16 336 -112 336
WIRE 496 336 496 288
WIRE 16 352 16 336
FLAG 16 352 0
FLAG 496 336 0
FLAG 240 144 OUT2
FLAG 208 320 0
SYMBOL voltage 16 224 R0
SYMATTR InstName V1
SYMATTR Value 2.5
SYMBOL voltage -112 112 R0
WINDOW 123 24 44 Left 2
WINDOW 39 0 0 Left 0
WINDOW 3 -236 54 Left 2
SYMATTR Value2 AC 1
SYMATTR Value SINE(2.5 0.1 1k)
SYMATTR InstName V2
SYMBOL res -16 96 R90
WINDOW 0 0 56 VBottom 2
WINDOW 3 32 56 VTop 2
SYMATTR InstName R1
SYMATTR Value 10k
SYMBOL res 192 -80 R90
WINDOW 0 0 56 VBottom 2
WINDOW 3 32 56 VTop 2
SYMATTR InstName R2
SYMATTR Value 100k
SYMBOL voltage 496 192 R0
SYMATTR InstName V4
SYMATTR Value 5
SYMBOL opamp_k_niioka_20200903 112 144 R0
SYMATTR InstName X1
TEXT 72 416 Left 2 !.include models/OR1_mos
TEXT -144 440 Left 2 !.tran 0 3m 1m
TEXT -344 0 Left 2 !;ac dec 10 1 10G
TEXT -840 -40 Left 2 !.MEAS t10rise: v(out)=0.1 RISE=1
TEXT -840 -8 Left 2 !.MEAS t90rise: v(out)=0.9 RISE=1
TEXT -848 24 Left 2 !.MEAS sr+: (0.8/(t90rise-t10rise))*1e-6
TEXT -840 56 Left 2 !.MEAS t10fall: v(out)=0.1 FALL=1
TEXT -840 88 Left 2 !.MEAS t90fall: v(out)=0.9 FALL=1
TEXT -856 120 Left 2 !.MEAS sr-: (0.8/(t10fall-t90fall))*1e-6
TEXT -336 32 Left 2 !;tran 0 20m 10m
