Version 4
SHEET 1 1580 680
WIRE -512 16 -512 -32
WIRE -96 16 -144 16
WIRE 208 16 -16 16
WIRE 688 16 640 16
WIRE 1104 16 768 16
WIRE 912 96 912 0
WIRE 928 96 912 96
WIRE -256 128 -336 128
WIRE -144 128 -144 16
WIRE -144 128 -176 128
WIRE 64 128 -144 128
WIRE 112 128 112 -32
WIRE 528 128 448 128
WIRE 640 128 640 16
WIRE 640 128 608 128
WIRE 928 128 640 128
WIRE -512 160 -512 96
WIRE 208 160 208 16
WIRE 208 160 176 160
WIRE 928 160 848 160
WIRE 1104 160 1104 16
WIRE 1104 160 1056 160
WIRE -336 192 -336 128
WIRE -256 192 -336 192
WIRE -144 192 -176 192
WIRE 64 192 -144 192
WIRE 448 192 448 128
WIRE 528 192 448 192
WIRE 640 192 608 192
WIRE 848 192 848 160
WIRE 848 192 640 192
WIRE 912 192 912 96
WIRE 928 192 912 192
WIRE 1072 192 1056 192
WIRE -144 208 -144 192
WIRE 64 208 48 208
WIRE 640 208 640 192
WIRE -336 224 -336 192
WIRE 448 224 448 192
WIRE 1072 224 1072 192
WIRE 912 256 912 192
WIRE 912 256 896 256
WIRE 112 272 112 192
WIRE 112 272 64 272
WIRE 48 304 48 208
WIRE -336 320 -336 304
WIRE -144 320 -144 288
WIRE 640 320 640 288
WIRE -144 416 -144 400
WIRE 640 416 640 400
FLAG 1072 224 0
FLAG 1104 160 Vout2
IOPIN 1104 160 Out
FLAG 896 256 Vbias2
IOPIN 896 256 In
FLAG 912 0 vdd
FLAG 64 272 Vbias1
IOPIN 64 272 In
FLAG 208 160 Vout1
IOPIN 208 160 Out
FLAG 48 304 0
FLAG -512 -32 vdd
FLAG -512 160 0
FLAG -144 416 0
FLAG -336 320 0
FLAG 112 -32 vdd
FLAG 640 416 0
FLAG -336 128 vin
FLAG 448 224 vin
SYMBOL Opamp3ureiauto 144 160 R0
SYMATTR InstName X1
SYMBOL opamp_k_niioka_20200903 992 160 R0
SYMATTR InstName X2
SYMBOL voltage -512 0 R0
SYMATTR InstName V1
SYMATTR Value {vdd}
SYMBOL voltage -144 304 R0
SYMATTR InstName V2
SYMATTR Value {vdd/2}
SYMBOL res -160 112 R90
WINDOW 0 0 56 VBottom 2
WINDOW 3 32 56 VTop 2
SYMATTR InstName R1
SYMATTR Value {Rs}
SYMBOL res -160 176 R90
WINDOW 0 48 103 VBottom 2
WINDOW 3 32 56 VTop 2
SYMATTR InstName R2
SYMATTR Value {Rs}
SYMBOL res -160 192 R0
SYMATTR InstName R3
SYMATTR Value {Rf}
SYMBOL res 0 0 R90
WINDOW 0 0 56 VBottom 2
WINDOW 3 32 56 VTop 2
SYMATTR InstName R4
SYMATTR Value {Rf}
SYMBOL voltage -336 208 R0
SYMATTR InstName V3
SYMATTR Value {Vin}
SYMBOL voltage 640 304 R0
SYMATTR InstName V4
SYMATTR Value {vdd/2}
SYMBOL res 624 112 R90
WINDOW 0 0 56 VBottom 2
WINDOW 3 32 56 VTop 2
SYMATTR InstName R5
SYMATTR Value {Rs}
SYMBOL res 624 176 R90
WINDOW 0 48 103 VBottom 2
WINDOW 3 32 56 VTop 2
SYMATTR InstName R6
SYMATTR Value {Rs}
SYMBOL res 624 192 R0
SYMATTR InstName R7
SYMATTR Value {Rf}
SYMBOL res 784 0 R90
WINDOW 0 0 56 VBottom 2
WINDOW 3 32 56 VTop 2
SYMATTR InstName R8
SYMATTR Value {Rf}
TEXT -344 -128 Left 2 !.param Rs=100 Rf=100k vdd=5
TEXT -584 440 Left 2 !.dc V3 0 5 0.01
