Version 4
SHEET 1 880 680
WIRE 96 -64 0 -64
WIRE 256 -64 176 -64
WIRE 416 32 112 32
WIRE 416 80 416 32
WIRE 0 112 0 -64
WIRE 0 112 -32 112
WIRE 64 112 0 112
WIRE 112 112 112 32
WIRE -112 128 -112 112
WIRE 256 144 256 -64
WIRE 256 144 176 144
WIRE 304 144 256 144
WIRE 64 176 16 176
WIRE 16 240 16 176
WIRE -112 336 -112 208
WIRE 16 336 16 320
WIRE 16 336 -112 336
WIRE 416 336 416 160
WIRE 16 352 16 336
FLAG 16 352 0
FLAG 416 336 0
FLAG 304 144 OUT1
SYMBOL voltage 16 224 R0
WINDOW 123 0 0 Left 0
WINDOW 39 0 0 Left 0
SYMATTR InstName V1
SYMATTR Value 2.5
SYMBOL voltage -112 112 R0
WINDOW 3 34 169 Left 2
WINDOW 123 0 0 Left 0
WINDOW 39 0 0 Left 0
SYMATTR InstName V2
SYMATTR Value SINE(2.5 0.1 1k)
SYMBOL res -16 96 R90
WINDOW 0 0 56 VBottom 2
WINDOW 3 32 56 VTop 2
SYMATTR InstName R1
SYMATTR Value 10k
SYMBOL res 192 -80 R90
WINDOW 0 0 56 VBottom 2
WINDOW 3 32 56 VTop 2
SYMATTR InstName R2
SYMATTR Value 100k
SYMBOL voltage 416 64 R0
SYMATTR InstName V3
SYMATTR Value 5
SYMBOL Opamp3ureiauto 144 144 R0
SYMATTR InstName X1
TEXT 72 344 Left 2 !.include models/OR1_mos
TEXT -146 376 Left 2 !.tran 10m
